data/input/matpower/sample_293.m
function mpc = powergrid
mpc.version = '2';
mpc.baseMVA = 100;
mpc.bus = [
	1	1	87.065235	37.956844	0	-400	1	1.013370	14.553246	130	1	1.100000	0.900000;
	2	1	687.711159	255.127813	0	0	1	1.021148	11.810949	130	1	1.100000	0.900000;
	3	1	312.208487	165.175015	0	0	1	0.988054	17.286984	130	1	1.100000	0.900000;
	4	1	564.241523	417.632985	0	0	1	0.954692	7.478282	130	1	1.100000	0.900000;
	5	1	158.644913	96.815018	0	0	1	1.001201	-10.672797	130	1	1.100000	0.900000;
	6	1	197.929172	17.800427	0	0	1	1.011515	-6.979857	130	1	1.100000	0.900000;
	7	1	58.238392	37.364365	0	0	1	1.012206	-6.936617	130	1	1.100000	0.900000;
	8	1	44.457262	10.128967	0	0	1	1.052865	-9.400216	130	1	1.100000	0.900000;
	9	1	165.482818	61.951117	0	0	1	1.057540	-13.037151	130	1	1.100000	0.900000;
	10	1	167.088045	114.992124	0	0	1	1.049943	-3.285573	220	1	1.100000	0.900000;
	11	1	60.460766	29.771571	0	0	1	1.033892	-4.632576	220	1	1.100000	0.900000;
	12	1	983.327285	647.653142	0	-400	1	0.920469	17.970529	400	1	1.100000	0.900000;
	13	1	408.720416	42.071642	0	0	1	0.992508	26.137999	400	1	1.100000	0.900000;
	14	1	459.996394	232.841959	0	0	1	1.073825	-11.517692	400	1	1.100000	0.900000;
	15	1	12.727461	4.761453	0	0	1	1.057598	-5.950744	400	1	1.100000	0.900000;
	16	1	219.354253	36.771130	0	0	1	1.038892	-9.072837	400	1	1.100000	0.900000;
	17	1	591.495003	213.447097	0	0	1	1.016054	-10.299905	400	1	1.100000	0.900000;
	18	1	159.531809	35.464350	0	0	1	1.015903	-7.408369	400	1	1.100000	0.900000;
	19	1	497.603336	-345.931131	0	0	1	1.067825	-21.300513	400	1	1.100000	0.900000;
	20	1	784.850150	-307.077418	0	0	1	1.121583	-21.797757	400	1	1.100000	0.900000;
	21	1	51.830012	16.457938	0	0	1	1.092918	-18.456003	400	1	1.100000	0.900000;
	22	1	132.462365	70.618307	0	0	1	1.096075	-19.433275	400	1	1.100000	0.900000;
	23	1	0	0	0	-100	1	0.936375	13.789979	400	1	1.100000	0.900000;
	24	1	0	0	0	0	1	1.002133	17.858910	130	1	1.100000	0.900000;
	25	1	0	0	0	0	1	0.992623	18.894376	130	1	1.100000	0.900000;
	26	1	0	0	0	0	1	0.942964	14.399358	400	1	1.100000	0.900000;
	27	1	0	0	0	0	1	1.046612	0.481859	400	1	1.100000	0.900000;
	28	1	0	0	0	0	1	0.942321	6.787119	400	1	1.100000	0.900000;
	29	1	0	0	0	0	1	1.041461	-3.119564	400	1	1.100000	0.900000;
	30	1	0	0	0	0	1	0.986575	-10.211020	400	1	1.100000	0.900000;
	31	1	0	0	0	0	1	1.015849	-1.886909	400	1	1.100000	0.900000;
	32	1	0	0	0	0	1	1.077536	-19.464924	400	1	1.100000	0.900000;
	33	1	0	0	0	0	1	1.077536	-19.464924	400	1	1.100000	0.900000;
	34	1	0	0	0	0	1	1.032175	-7.752722	400	1	1.100000	0.900000;
	35	1	0	0	0	0	1	1.027270	-13.329609	400	1	1.100000	0.900000;
	36	1	0	0	0	0	1	1.060427	-9.610981	400	1	1.100000	0.900000;
	37	1	0	0	0	0	1	1.066426	-12.852925	400	1	1.100000	0.900000;
	38	2	0	0	0	0	1	0	11.810949	15	1	1.100000	0.900000;
	39	2	0	0	0	0	1	1	22.950080	15	1	1.100000	0.900000;
	40	2	0	0	0	0	1	1	21.241585	15	1	1.100000	0.900000;
	41	2	0	0	0	0	1	1	21.662005	15	1	1.100000	0.900000;
	42	2	0	0	0	0	1	1	24.847360	15	1	1.100000	0.900000;
	43	2	0	0	0	0	1	1	-1.448525	15	1	1.100000	0.900000;
	44	2	0	0	0	0	1	1	9.416905	15	1	1.100000	0.900000;
	45	2	0	0	0	0	1	0	-4.632576	15	1	1.100000	0.900000;
	46	2	0	0	0	0	1	1	20.334197	15	1	1.100000	0.900000;
	47	2	0	0	0	0	1	1	19.766731	15	1	1.100000	0.900000;
	48	2	0	0	0	0	1	0	0.481859	15	1	1.100000	0.900000;
	49	2	0	0	0	0	1	1	12.152134	15	1	1.100000	0.900000;
	50	2	0	0	0	0	1	0	-11.517692	15	1	1.100000	0.900000;
	51	2	0	0	0	0	1	1	-0.661026	15	1	1.100000	0.900000;
	52	3	0	0	0	0	1	1	0	15	1	1.000000	1.000000;
	53	2	0	0	0	0	1	1	-5.686504	15	1	1.100000	0.900000;
	54	2	0	0	0	0	1	1	-20.300700	15	1	1.100000	0.900000;
	55	2	0	0	0	0	1	0	-21.300513	15	1	1.100000	0.900000;
	56	2	0	0	0	0	1	1	-13.337804	15	1	1.100000	0.900000;
	57	2	0	0	0	0	1	0	-19.433275	15	1	1.100000	0.900000;
	58	2	0	0	0	0	1	0	-19.433275	15	1	1.100000	0.900000;
	59	2	0	0	0	0	1	1	24.050946	15	1	1.100000	0.900000;
	60	2	0	0	0	0	1	1	28.676159	15	1	1.100000	0.900000;
	61	2	0	0	0	0	1	0	-10.672797	15	1	1.100000	0.900000;
];
mpc.gen = [
	52	0	0	1840.000000	-540.000000	1	1	1	2800.000000	10.000000	0	0	0	0	0	0	0	0	0	0	0;
	38	0	0	720.000000	-720.000000	0	100	0	720.000000	10.000000	0	0	0	0	0	0	0	0	0	0	0;
	39	390.000000	0	540.000000	-540.000000	1	100	1	540.000000	10.000000	0	0	0	0	0	0	0	0	0	0	0;
	40	275.936276	0	630.000000	-630.000000	1	100	1	630.000000	10.000000	0	0	0	0	0	0	0	0	0	0	0;
	41	191.716938	0	540.000000	-540.000000	1	100	1	540.000000	10.000000	0	0	0	0	0	0	0	0	0	0	0;
	42	475.000000	0	325.000000	-225.000000	1	100	1	475.000000	10.000000	0	0	0	0	0	0	0	0	0	0	0;
	43	260.000000	0	560.000000	-360.000000	1	100	1	560.000000	10.000000	0	0	0	0	0	0	0	0	0	0	0;
	44	380.000000	0	360.000000	-280.000000	1	100	1	380.000000	10.000000	0	0	0	0	0	0	0	0	0	0	0;
	45	0	0	965.000000	-765.000000	0	100	0	965.000000	10.000000	0	0	0	0	0	0	0	0	0	0	0;
	46	650.000000	0	900.000000	-900.000000	1	100	1	900.000000	10.000000	0	0	0	0	0	0	0	0	0	0	0;
	47	520.000000	0	720.000000	-720.000000	1	100	1	720.000000	10.000000	0	0	0	0	0	0	0	0	0	0	0;
	48	0	0	570.000000	-370.000000	0	100	0	570.000000	10.000000	0	0	0	0	0	0	0	0	0	0	0;
	49	575.000000	0	515.000000	-415.000000	1	100	1	575.000000	10.000000	0	0	0	0	0	0	0	0	0	0	0;
	50	0	0	570.000000	-570.000000	0	100	0	0.000000	-0.000000	0	0	0	0	0	0	0	0	0	0	0;
	51	455.000000	0	630.000000	-630.000000	1	100	1	630.000000	10.000000	0	0	0	0	0	0	0	0	0	0	0;
	53	122.102135	0	580.000000	-540.000000	1	100	1	540.000000	10.000000	0	0	0	0	0	0	0	0	0	0	0;
	54	86.950493	0	630.000000	-630.000000	1	100	1	630.000000	10.000000	0	0	0	0	0	0	0	0	0	0	0;
	55	0	0	630.000000	-630.000000	0	100	0	630.000000	10.000000	0	0	0	0	0	0	0	0	0	0	0;
	56	390.000000	0	540.000000	-540.000000	1	100	1	540.000000	10.000000	0	0	0	0	0	0	0	0	0	0	0;
	57	0	0	540.000000	-540.000000	0	100	0	540.000000	10.000000	0	0	0	0	0	0	0	0	0	0	0;
	58	0	0	540.000000	-540.000000	0	100	0	540.000000	10.000000	0	0	0	0	0	0	0	0	0	0	0;
	59	325.000000	0	520.000000	-450.000000	1	100	1	560.000000	10.000000	0	0	0	0	0	0	0	0	0	0	0;
	60	1318.720416	0	4000.000000	-2050.000000	1	100	1	4500.000000	10.000000	0	0	0	0	0	0	0	0	0	0	0;
	61	0	0	250.000000	-250.000000	0	100	0	0.000000	-0.000000	0	0	0	0	0	0	0	0	0	0	0;
];
mpc.branch = [
	1	3	0.010000	0.070000	0.013804	175.000000	250	250	0	0	1	-360	360;
	1	3	0.010000	0.070000	0.013804	175.000000	250	250	0	0	1	-360	360;
	2	24	0.014024	0.090000	0.018052	175.000000	250	250	0	0	1	-360	360;
	2	24	0.014024	0.090000	0.018052	175.000000	250	250	0	0	1	-360	360;
	3	24	0.006982	0.050000	0.010088	175.000000	250	250	0	0	1	-360	360;
	3	24	0.006982	0.050000	0.010088	175.000000	250	250	0	0	1	-360	360;
	25	4	0.030000	0.200000	0.030263	175.000000	250	250	0	0	1	-360	360;
	25	4	0.030000	0.200000	0.030263	175.000000	250	250	0	0	1	-360	360;
	5	7	0.010000	0.060000	0.012211	175.000000	250	250	0	0	1	-360	360;
	5	7	0.010000	0.060000	0.012211	175.000000	250	250	0	0	1	-360	360;
	5	9	0.014970	0.120000	0.024954	175.000000	250	250	0	0	1	-360	360;
	5	9	0.014970	0.120000	0.024954	175.000000	250	250	0	0	1	-360	360;
	6	8	0.037988	0.280000	0.059995	175.000000	250	250	0	0	1	-360	360;
	6	8	0.037988	0.280000	0.059995	175.000000	250	250	0	0	1	-360	360;
	6	9	0.050000	0.300000	0.059995	175.000000	250	250	0	0	1	-360	360;
	7	8	0.010000	0.080000	0.015928	175.000000	250	250	0	0	1	-360	360;
	7	8	0.010000	0.080000	0.015928	175.000000	250	250	0	0	1	-360	360;
	10	11	0.012004	0.090000	0.015205	250.000000	250	250	0	0	1	-360	360;
	10	11	0.012004	0.090000	0.015205	250.000000	250	250	0	0	1	-360	360;
	26	23	0.001000	0.008000	0.201062	700.000000	250	250	0	0	1	-360	360;
	26	27	0.006000	0.060000	1.799488	700.000000	250	250	0	0	1	-360	360;
	26	28	0.004000	0.040000	1.201344	700.000000	250	250	0	0	1	-360	360;
	26	12	0.005000	0.045000	1.402400	700.000000	250	250	0	0	1	-360	360;
	23	28	0.004000	0.035000	1.050560	700.000000	250	250	0	0	1	-360	360;
	23	12	0.005000	0.050000	1.497920	700.000000	250	250	0	0	1	-360	360;
	27	29	0.004000	0.040000	1.201344	700.000000	250	250	0	0	1	-360	360;
	27	30	0.010000	0.100000	3.000864	700.000000	250	250	0	0	1	-360	360;
	30	15	0	-0.040000	0	700.000000	250	250	0	0	1	-360	360;
	28	31	0.004000	0.040000	1.201344	700.000000	250	250	0	0	1	-360	360;
	28	31	0.004000	0.040000	1.201344	700.000000	250	250	0	0	1	-360	360;
	31	29	0.001000	0.010000	0.301594	700.000000	250	250	0	0	1	-360	360;
	31	32	0.006000	0.080000	2.397664	700.000000	250	250	0	0	1	-360	360;
	32	14	0	-0.040000	0	700.000000	250	250	0	0	1	-360	360;
	31	33	0.006000	0.080000	2.397664	700.000000	250	250	0	0	1	-360	360;
	33	14	0	-0.040000	0	700.000000	250	250	0	0	1	-360	360;
	29	34	0.010000	0.066669	2.000576	700.000000	250	250	0	0	1	-360	360;
	34	15	0	-0.026669	0	700.000000	250	250	0	0	1	-360	360;
	29	35	0.006000	0.080000	2.397664	700.000000	250	250	0	0	1	-360	360;
	35	36	0	-0.030000	0	700.000000	250	250	0	0	1	-360	360;
	14	36	0.003000	0.030000	0.899744	700.000000	250	250	0	0	1	-360	360;
	14	20	0.006000	0.045000	1.301888	700.000000	250	250	0	0	1	-360	360;
	15	16	0.002000	0.015000	0.497632	700.000000	250	250	0	0	1	-360	360;
	15	36	0.002000	0.020000	0.598176	700.000000	250	250	0	0	1	-360	360;
	16	36	0.001000	0.010000	0.301594	700.000000	250	250	0	0	1	-360	360;
	16	17	0.001000	0.010000	0.301594	700.000000	250	250	0	0	1	-360	360;
	16	18	0.002000	0.020000	0.598176	700.000000	250	250	0	0	1	-360	360;
	36	37	0.002000	0.020000	0.598176	700.000000	250	250	0	0	1	-360	360;
	36	37	0.002000	0.020000	0.598176	700.000000	250	250	0	0	1	-360	360;
	37	19	0.004000	0.040000	1.201344	700.000000	250	250	0	0	0	-360	360;
	37	19	0.004000	0.040000	1.201344	700.000000	250	250	0	0	1	-360	360;
	37	21	0.011000	0.080000	2.397664	700.000000	250	250	0	0	1	-360	360;
	17	18	0.001000	0.015000	0.497632	700.000000	250	250	0	0	1	-360	360;
	20	21	0.002000	0.020000	0.598176	700.000000	250	250	0	0	1	-360	360;
	21	22	0.003000	0.030000	0.899744	700.000000	250	250	0	0	1	-360	360;
	21	22	0.003000	0.030000	0.899744	700.000000	250	250	0	0	1	-360	360;
	12	13	0.003000	0.030000	3.000864	700.000000	250	250	0	0	1	-360	360;
	12	13	0.003000	0.030000	3.000864	700.000000	250	250	0	0	1	-360	360;
	2	38	0	0.018750	0	800	250	250	0	0	1	-360	360;
	3	39	0	0.025000	0	600	250	250	0	0	1	-360	360;
	24	40	0	0.021429	0	700	250	250	0	0	1	-360	360;
	25	41	0	0.025000	0	600	250	250	0	0	1	-360	360;
	4	42	0	0.060000	0	1250	250	250	0	0	1	-360	360;
	6	43	0	0.037500	0	400	250	250	0	0	1	-360	360;
	7	44	0	0.075000	0	1200	250	250	0	0	1	-360	360;
	11	45	0	0.017647	0	850	250	250	0	0	1	-360	360;
	26	46	0	0.015000	0	1000	250	250	0	0	1	-360	360;
	23	47	0	0.018750	0	800	250	250	0	0	1	-360	360;
	27	48	0	0.050000	0	300	250	250	0	0	1	-360	360;
	31	49	0	0.042857	0	1350	250	250	0	0	1	-360	360;
	14	50	0	0.017391	0	575	250	250	0	0	1	-360	360;
	15	51	0	0.021429	0	700	250	250	0	0	1	-360	360;
	18	52	0	0.025000	0	600	250	250	0	0	1	-360	360;
	18	53	0	0.025000	0	600	250	250	0	0	1	-360	360;
	19	54	0	0.021429	0	700	250	250	0	0	1	-360	360;
	19	55	0	0.021429	0	700	250	250	0	0	1	-360	360;
	21	56	0	0.025000	0	600	250	250	0	0	1	-360	360;
	22	57	0	0.025000	0	600	250	250	0	0	1	-360	360;
	22	58	0	0.025000	0	600	250	250	0	0	1	-360	360;
	12	59	0	0.030000	0	500	250	250	0	0	1	-360	360;
	13	60	0	0.003333	0	4500	250	250	0	0	1	-360	360;
	26	1	0	0.008000	0	1250	250	250	0.892860	0	1	-360	360;
	23	2	0	0.008000	0	1250	250	250	0.892860	0	1	-360	360;
	28	4	0	0.012000	0	833.300000	250	250	0.934580	0	1	-360	360;
	31	10	0	0.012000	0	833.300000	250	250	0.952380	0	1	-360	360;
	36	8	0	0.010000	0	1000	250	250	0	0	1	-360	360;
	36	8	0	0.010000	0	1000	250	250	0	0	1	-360	360;
	37	9	0	0.010000	0	1000	250	250	0	0	1	-360	360;
	37	9	0	0.010000	0	1000	250	250	0	0	1	-360	360;
	5	61	0	0.025000	0	1200	250	250	0	0	1	-360	360;
];
